packages/bdgd2opendss/bdgd2opendss-1.0.0.tar.gz/bdgd2opendss-1.0.0/tests/dss_models_output/sub__/1_ALPE_1/GD_BT_202312598_1_ALPE_1_------1-----.dss
New "LoadShape.default_pv_daily_bt" npts=24 interval=1 
~ mult = [0 0 0 0 0 0 0.1 0.2 0.3 0.5 0.8 0.9 1.0 1.0 0.99 0.9 0.7 0.4 0.1 0 0 0 0 0] 

New "generator.GD.RS.001.751.852" phases=1 bus1=UC827423.1.4 basefreq=60 conn=Wye kv=0.2193931022920578 pf=0.92 kw=7.0 daily=default_pv_daily_bt 

New "generator.GD.RS.000.685.788" phases=1 bus1=UC827422.1.4 basefreq=60 conn=Wye kv=0.22 pf=0.92 kw=4.0 daily=default_pv_daily_bt 

New "generator.GD.RS.001.675.208" phases=1 bus1=UC827148.1.2.4 basefreq=60 conn=Delta kv=0.44 pf=0.92 kw=22.0 daily=default_pv_daily_bt 

New "generator.GD.RS.000.344.185" phases=3 bus1=UC826618.1.2.3.4 basefreq=60 conn=Delta kv=0.38 pf=0.92 kw=20.0 daily=default_pv_daily_bt 

New "generator.GD.RS.000.588.267" phases=1 bus1=UC726464.1.4 basefreq=60 conn=Wye kv=0.22 pf=0.92 kw=5.0 daily=default_pv_daily_bt 

New "generator.GD.RS.001.751.797" phases=1 bus1=UC726404.1.2.4 basefreq=60 conn=Delta kv=0.44 pf=0.92 kw=4.4 daily=default_pv_daily_bt 

New "generator.GD.RS.000.523.615" phases=3 bus1=UC825578.1.2.3.4 basefreq=60 conn=Delta kv=0.38 pf=0.92 kw=12.8 daily=default_pv_daily_bt 

New "generator.GD.RS.000.761.439" phases=1 bus1=UC824156.1.2.4 basefreq=60 conn=Delta kv=0.44 pf=0.92 kw=3.0 daily=default_pv_daily_bt 

New "generator.GD.RS.000.523.607" phases=3 bus1=UC819674.1.2.3.4 basefreq=60 conn=Delta kv=0.38 pf=0.92 kw=12.74 daily=default_pv_daily_bt 

New "generator.GD.RS.001.063.369" phases=3 bus1=UC820269.1.2.3.4 basefreq=60 conn=Delta kv=0.38 pf=0.92 kw=12.0 daily=default_pv_daily_bt 

New "generator.GD.RS.001.922.398" phases=1 bus1=UC825456.2.4 basefreq=60 conn=Wye kv=0.2193931022920578 pf=0.92 kw=3.0 daily=default_pv_daily_bt 

New "generator.GD.RS.001.675.198" phases=1 bus1=UC816595.1.4 basefreq=60 conn=Wye kv=0.22 pf=0.92 kw=4.5 daily=default_pv_daily_bt 

New "generator.GD.RS.001.993.131" phases=1 bus1=UC816423.1.2.4 basefreq=60 conn=Delta kv=0.44 pf=0.92 kw=6.66 daily=default_pv_daily_bt 

New "generator.GD.RS.000.965.850" phases=3 bus1=UC816488.1.2.3.4 basefreq=60 conn=Delta kv=0.38 pf=0.92 kw=2.64 daily=default_pv_daily_bt 

New "generator.GD.RS.001.368.758" phases=1 bus1=UC815548.1.4 basefreq=60 conn=Wye kv=0.22 pf=0.92 kw=4.4 daily=default_pv_daily_bt 

New "generator.GD.RS.001.000.908" phases=1 bus1=UC815691.2.4 basefreq=60 conn=Wye kv=0.2193931022920578 pf=0.92 kw=8.3 daily=default_pv_daily_bt 

New "generator.GD.RS.001.922.381" phases=1 bus1=UC815696.1.2.4 basefreq=60 conn=Delta kv=0.38 pf=0.92 kw=4.95 daily=default_pv_daily_bt 

New "generator.GD.RS.002.132.513" phases=1 bus1=UC722496.1.2.4 basefreq=60 conn=Delta kv=0.44 pf=0.92 kw=20.0 daily=default_pv_daily_bt 

New "generator.GD.RS.001.063.339" phases=3 bus1=UC711262.1.2.3.4 basefreq=60 conn=Delta kv=0.38 pf=0.92 kw=4.15 daily=default_pv_daily_bt 

New "generator.GD.RS.001.674.904" phases=3 bus1=UC815686.1.2.3.4 basefreq=60 conn=Delta kv=0.38 pf=0.92 kw=3.85 daily=default_pv_daily_bt 

New "generator.GD.RS.001.429.543" phases=1 bus1=UC815689.1.4 basefreq=60 conn=Wye kv=0.2193931022920578 pf=0.92 kw=5.67 daily=default_pv_daily_bt 

New "generator.GD.RS.000.588.198" phases=1 bus1=UC819317.1.2.4 basefreq=60 conn=Delta kv=0.44 pf=0.92 kw=4.0 daily=default_pv_daily_bt 

New "generator.GD.RS.001.922.372" phases=1 bus1=UC815529.2.4 basefreq=60 conn=Wye kv=0.22 pf=0.92 kw=3.0 daily=default_pv_daily_bt 

New "generator.GD.RS.000.505.348" phases=3 bus1=UC816072.1.2.3.4 basefreq=60 conn=Delta kv=0.38 pf=0.92 kw=11.83 daily=default_pv_daily_bt 

New "generator.GD.RS.001.813.641" phases=1 bus1=UC816035.1.2.4 basefreq=60 conn=Delta kv=0.44 pf=0.92 kw=6.0 daily=default_pv_daily_bt 

New "generator.GD.RS.001.000.923" phases=1 bus1=UC816028.1.2.4 basefreq=60 conn=Delta kv=0.38 pf=0.92 kw=8.55 daily=default_pv_daily_bt 

New "generator.GD.RS.001.429.634" phases=3 bus1=UC815748.1.2.3.4 basefreq=60 conn=Delta kv=0.38 pf=0.92 kw=15.0 daily=default_pv_daily_bt 

New "generator.GD.RS.001.817.481" phases=1 bus1=UC815745.1.2.4 basefreq=60 conn=Delta kv=0.44 pf=0.92 kw=3.3 daily=default_pv_daily_bt 

New "generator.GD.RS.000.761.421" phases=3 bus1=UC815657.1.2.3.4 basefreq=60 conn=Delta kv=0.38 pf=0.92 kw=15.0 daily=default_pv_daily_bt 

New "generator.GD.RS.001.000.859" phases=1 bus1=UC723080.2.4 basefreq=60 conn=Wye kv=0.22 pf=0.92 kw=2.7 daily=default_pv_daily_bt 

New "generator.GD.RS.001.958.393" phases=1 bus1=UC815643.1.4 basefreq=60 conn=Wye kv=0.22 pf=0.92 kw=7.15 daily=default_pv_daily_bt 

New "generator.GD.RS.001.818.075" phases=1 bus1=UC816740.1.4 basefreq=60 conn=Wye kv=0.22 pf=0.92 kw=3.0 daily=default_pv_daily_bt 

New "generator.GD.RS.001.922.391" phases=3 bus1=UC816565.1.2.3.4 basefreq=60 conn=Delta kv=0.38 pf=0.92 kw=5.45 daily=default_pv_daily_bt 

New "generator.GD.RS.000.371.801" phases=1 bus1=UC815417.1.2.4 basefreq=60 conn=Delta kv=0.44 pf=0.92 kw=8.0 daily=default_pv_daily_bt 

New "generator.GD.RS.000.479.634" phases=3 bus1=UC819339.1.2.3.4 basefreq=60 conn=Delta kv=0.38 pf=0.92 kw=15.0 daily=default_pv_daily_bt 

New "generator.GD.RS.001.000.869" phases=3 bus1=UC815453.1.2.3.4 basefreq=60 conn=Delta kv=0.38 pf=0.92 kw=4.84 daily=default_pv_daily_bt 

New "generator.GD.RS.001.674.788" phases=1 bus1=UC710606.2.4 basefreq=60 conn=Wye kv=0.22 pf=0.92 kw=3.3 daily=default_pv_daily_bt 

New "generator.GD.RS.001.368.724" phases=1 bus1=UC710640.1.2.4 basefreq=60 conn=Delta kv=0.44 pf=0.92 kw=5.35 daily=default_pv_daily_bt 

New "generator.GD.RS.001.522.706" phases=1 bus1=UC710628.1.4 basefreq=60 conn=Wye kv=0.22 pf=0.92 kw=5.4 daily=default_pv_daily_bt 

New "generator.GD.RS.001.590.916" phases=1 bus1=UC710662.1.2.4 basefreq=60 conn=Delta kv=0.44 pf=0.92 kw=6.0 daily=default_pv_daily_bt 

New "generator.GD.RS.000.038.156" phases=3 bus1=UC711125.1.2.3.4 basefreq=60 conn=Delta kv=0.38 pf=0.92 kw=57.0 daily=default_pv_daily_bt 

New "generator.GD.RS.002.112.001" phases=1 bus1=UC710915.1.4 basefreq=60 conn=Wye kv=0.22 pf=0.92 kw=6.0 daily=default_pv_daily_bt 

New "generator.GD.RS.001.000.850" phases=1 bus1=UC413731.1.4 basefreq=60 conn=Wye kv=0.2193931022920578 pf=0.92 kw=4.4 daily=default_pv_daily_bt 

New "generator.GD.RS.001.817.465" phases=1 bus1=UC425215.2.4 basefreq=60 conn=Wye kv=0.2193931022920578 pf=0.92 kw=3.0 daily=default_pv_daily_bt 

New "generator.GD.RS.001.674.736" phases=1 bus1=UC423281.1.4 basefreq=60 conn=Wye kv=0.2193931022920578 pf=0.92 kw=2.55 daily=default_pv_daily_bt 

New "generator.GD.RS.001.813.508" phases=1 bus1=UC423334.1.4 basefreq=60 conn=Wye kv=0.22 pf=0.92 kw=3.0 daily=default_pv_daily_bt 

New "generator.GD.RS.002.128.518" phases=3 bus1=UC413782.1.2.3.4 basefreq=60 conn=Delta kv=0.38 pf=0.92 kw=25.0 daily=default_pv_daily_bt 

New "generator.GD.RS.001.429.645" phases=3 bus1=UC838859.1.2.3.4 basefreq=60 conn=Delta kv=0.38 pf=0.92 kw=13.2 daily=default_pv_daily_bt 

New "generator.GD.RS.001.675.221" phases=1 bus1=UC837299.1.4 basefreq=60 conn=Wye kv=0.2193931022920578 pf=0.92 kw=8.0 daily=default_pv_daily_bt 

New "generator.GD.RS.001.590.790" phases=1 bus1=UC422125.2.4 basefreq=60 conn=Wye kv=0.2193931022920578 pf=0.92 kw=3.0 daily=default_pv_daily_bt 

New "generator.GD.RS.000.859.053" phases=1 bus1=UC413775.1.4 basefreq=60 conn=Wye kv=0.2193931022920578 pf=0.92 kw=7.49 daily=default_pv_daily_bt 

New "generator.GD.RS.001.674.759" phases=3 bus1=UC438411.1.2.3.4 basefreq=60 conn=Delta kv=0.38 pf=0.92 kw=8.88 daily=default_pv_daily_bt 

New "generator.GD.RS.001.864.429" phases=1 bus1=UC838242.2.4 basefreq=60 conn=Wye kv=0.22 pf=0.92 kw=5.0 daily=default_pv_daily_bt 

New "generator.GD.RS.000.116.082" phases=3 bus1=UC419516.1.2.3.4 basefreq=60 conn=Delta kv=0.38 pf=0.92 kw=3.06 daily=default_pv_daily_bt 

New "generator.GD.RS.000.653.040" phases=3 bus1=UC437861.1.2.3.4 basefreq=60 conn=Delta kv=0.38 pf=0.92 kw=14.4 daily=default_pv_daily_bt 

New "generator.GD.RS.000.966.209" phases=1 bus1=UC737390.2.4 basefreq=60 conn=Wye kv=0.2193931022920578 pf=0.92 kw=3.0 daily=default_pv_daily_bt 

New "generator.GD.RS.001.063.348" phases=1 bus1=UC737264.2.4 basefreq=60 conn=Wye kv=0.22 pf=0.92 kw=4.95 daily=default_pv_daily_bt 

New "generator.GD.RS.001.590.980" phases=3 bus1=UC837269.1.2.3.4 basefreq=60 conn=Delta kv=0.38 pf=0.92 kw=70.0 daily=default_pv_daily_bt 

New "generator.GD.RS.000.912.734" phases=1 bus1=UC837094.1.2.4 basefreq=60 conn=Delta kv=0.44 pf=0.92 kw=10.0 daily=default_pv_daily_bt 

New "generator.GD.RS.001.000.935" phases=1 bus1=UC837100.1.4 basefreq=60 conn=Wye kv=0.22 pf=0.92 kw=5.0 daily=default_pv_daily_bt 

New "generator.GD.RS.000.586.416" phases=3 bus1=UC836780.1.2.3.4 basefreq=60 conn=Delta kv=0.38 pf=0.92 kw=75.0 daily=default_pv_daily_bt 

New "generator.GD.RS.001.368.809" phases=3 bus1=UC835940.1.2.3.4 basefreq=60 conn=Delta kv=0.38 pf=0.92 kw=12.0 daily=default_pv_daily_bt 

New "generator.GD.RS.001.522.758" phases=1 bus1=UC736574.1.2.4 basefreq=60 conn=Delta kv=0.44 pf=0.92 kw=8.56 daily=default_pv_daily_bt 

New "generator.GD.RS.000.965.816" phases=1 bus1=UC836256.2.4 basefreq=60 conn=Wye kv=0.22 pf=0.92 kw=8.3 daily=default_pv_daily_bt 

New "generator.GD.RS.001.428.182" phases=3 bus1=UC735996.1.2.3.4 basefreq=60 conn=Delta kv=0.38 pf=0.92 kw=9.72 daily=default_pv_daily_bt 

New "generator.GD.RS.001.958.397" phases=1 bus1=UC835574.1.4 basefreq=60 conn=Wye kv=0.2193931022920578 pf=0.92 kw=7.5 daily=default_pv_daily_bt 

New "generator.GD.RS.000.523.599" phases=1 bus1=UC735617.1.2.4 basefreq=60 conn=Delta kv=0.44 pf=0.92 kw=10.0 daily=default_pv_daily_bt 

New "generator.GD.RS.001.063.489" phases=1 bus1=UC835071.1.2.4 basefreq=60 conn=Delta kv=0.44 pf=0.92 kw=4.5 daily=default_pv_daily_bt 

New "generator.GD.RS.001.922.425" phases=1 bus1=UC834894.2.4 basefreq=60 conn=Wye kv=0.2193931022920578 pf=0.92 kw=5.0 daily=default_pv_daily_bt 

New "generator.GD.RS.000.181.077" phases=3 bus1=UC734654.1.2.3.4 basefreq=60 conn=Delta kv=0.38 pf=0.92 kw=36.0 daily=default_pv_daily_bt 

New "generator.GD.RS.001.590.945" phases=1 bus1=UC711134.1.4 basefreq=60 conn=Wye kv=0.2193931022920578 pf=0.92 kw=3.0 daily=default_pv_daily_bt 

New "generator.GD.RS.000.824.476" phases=1 bus1=UC733625.2.4 basefreq=60 conn=Wye kv=0.22 pf=0.92 kw=6.75 daily=default_pv_daily_bt 

New "generator.GD.RS.000.966.395" phases=1 bus1=UC833589.2.4 basefreq=60 conn=Wye kv=0.22 pf=0.92 kw=4.0 daily=default_pv_daily_bt 

New "generator.GD.RS.001.063.293" phases=3 bus1=UC433357.1.2.3.4 basefreq=60 conn=Delta kv=0.38 pf=0.92 kw=8.1 daily=default_pv_daily_bt 

New "generator.GD.RS.001.428.165" phases=3 bus1=UC733071.1.2.3.4 basefreq=60 conn=Delta kv=0.38 pf=0.92 kw=9.72 daily=default_pv_daily_bt 

New "generator.GD.RS.000.310.290" phases=1 bus1=UC732418.1.4 basefreq=60 conn=Wye kv=0.22 pf=0.92 kw=4.0 daily=default_pv_daily_bt 

New "generator.GD.RS.000.550.034" phases=3 bus1=UC832699.1.2.3.4 basefreq=60 conn=Delta kv=0.38 pf=0.92 kw=6.0 daily=default_pv_daily_bt 

New "generator.GD.RS.001.922.419" phases=1 bus1=UC832565.2.4 basefreq=60 conn=Wye kv=0.2193931022920578 pf=0.92 kw=3.3 daily=default_pv_daily_bt 

New "generator.GD.RS.001.063.470" phases=1 bus1=UC832294.1.2.4 basefreq=60 conn=Delta kv=0.44 pf=0.92 kw=8.0 daily=default_pv_daily_bt 

New "generator.GD.RS.001.590.960" phases=1 bus1=UC832290.2.4 basefreq=60 conn=Wye kv=0.2193931022920578 pf=0.92 kw=5.0 daily=default_pv_daily_bt 

New "generator.GD.RS.001.674.833" phases=1 bus1=UC731363.1.4 basefreq=60 conn=Wye kv=0.22 pf=0.92 kw=3.0 daily=default_pv_daily_bt 

New "generator.GD.RS.001.195.551" phases=1 bus1=UC830856.1.2.4 basefreq=60 conn=Delta kv=0.44 pf=0.92 kw=9.0 daily=default_pv_daily_bt 

New "generator.GD.RS.000.505.334" phases=1 bus1=UC730438.1.4 basefreq=60 conn=Wye kv=0.2193931022920578 pf=0.92 kw=5.0 daily=default_pv_daily_bt 

New "generator.GD.RS.000.912.721" phases=3 bus1=UC830853.1.2.3.4 basefreq=60 conn=Delta kv=0.38 pf=0.92 kw=12.0 daily=default_pv_daily_bt 

New "generator.GD.RS.001.817.510" phases=1 bus1=UC830436.2.4 basefreq=60 conn=Wye kv=0.2193931022920578 pf=0.92 kw=5.0 daily=default_pv_daily_bt 

New "generator.GD.RS.001.864.417" phases=1 bus1=UC830459.1.2.4 basefreq=60 conn=Delta kv=0.44 pf=0.92 kw=5.55 daily=default_pv_daily_bt 

New "generator.GD.RS.001.120.616" phases=3 bus1=UC829578.1.2.3.4 basefreq=60 conn=Delta kv=0.38 pf=0.92 kw=10.8 daily=default_pv_daily_bt 

New "generator.GD.RS.001.813.656" phases=1 bus1=UC829742.1.4 basefreq=60 conn=Wye kv=0.2193931022920578 pf=0.92 kw=2.83 daily=default_pv_daily_bt 

New "generator.GD.RS.000.966.378" phases=3 bus1=UC730093.1.2.3.4 basefreq=60 conn=Delta kv=0.38 pf=0.92 kw=12.15 daily=default_pv_daily_bt 

New "generator.GD.RS.000.258.664" phases=1 bus1=UC829566.2.4 basefreq=60 conn=Wye kv=0.2193931022920578 pf=0.92 kw=3.0 daily=default_pv_daily_bt 

New "generator.GD.RS.000.074.338" phases=3 bus1=UC729396.1.2.3.4 basefreq=60 conn=Delta kv=0.38 pf=0.92 kw=5.0 daily=default_pv_daily_bt 

New "generator.GD.RS.002.176.807" phases=1 bus1=UC815551.1.4 basefreq=60 conn=Wye kv=0.22 pf=0.92 kw=6.0 daily=default_pv_daily_bt 

